Version 4
SHEET 1 1668 680
WIRE -1264 32 -1264 -16
WIRE -1088 32 -1264 32
WIRE -1088 80 -1520 80
WIRE -448 80 -896 80
WIRE -448 112 -448 80
WIRE -1520 128 -1520 80
WIRE -1088 128 -1264 128
WIRE -688 128 -896 128
WIRE -1264 176 -1264 128
WIRE -1520 224 -1520 208
WIRE -688 224 -688 128
WIRE -448 224 -448 192
WIRE -448 224 -688 224
FLAG -1520 224 0
FLAG -1264 176 0
FLAG -1264 -16 0
SYMBOL res -464 96 R0
SYMATTR InstName Rout
SYMATTR Value {Rterm}
SYMBOL voltage -1520 112 R0
WINDOW 39 24 118 Left 2
WINDOW 123 24 124 Left 2
SYMATTR SpiceLine Rser=50
SYMATTR Value2 AC 1
SYMATTR InstName V1
SYMATTR Value SINE(0 1)
SYMBOL shieldedbalancedlumpedline256_shieldCRL -992 80 R0
SYMATTR InstName X1
TEXT -1552 416 Left 2 !;.ac dec 300 1 1Meg
TEXT -1552 488 Left 2 !.param Rterm=1G
TEXT -1784 -120 Left 2 !.ac oct 2000 10k 1G\n.net I(Rout) V1
