Version 4
SHEET 1 1196 680
WIRE 592 128 272 128
WIRE 272 336 272 128
WIRE 352 336 272 336
WIRE 592 336 592 128
WIRE 592 336 496 336
WIRE 736 336 592 336
WIRE 48 368 -112 368
WIRE 352 368 128 368
WIRE 352 400 272 400
WIRE 592 400 496 400
WIRE -112 496 -112 368
WIRE 272 496 272 400
WIRE 592 496 592 400
WIRE 272 640 272 576
WIRE 432 640 272 640
WIRE 592 640 592 576
WIRE 592 640 432 640
WIRE -112 656 -112 576
WIRE 432 656 432 640
FLAG 432 656 0
FLAG -112 656 0
FLAG 736 336 Vout
FLAG -112 368 Vin
SYMBOL voltage 272 480 R0
SYMATTR InstName +VS
SYMATTR Value 5
SYMATTR SpiceLine Rser=0
SYMBOL voltage 592 592 R180
WINDOW 0 24 96 Left 2
WINDOW 3 24 16 Left 2
SYMATTR InstName -VS
SYMATTR Value 5
SYMATTR SpiceLine Rser=0
SYMBOL voltage -112 480 R0
WINDOW 123 24 118 Left 2
SYMATTR Value2 AC 0.1 0
SYMATTR InstName V1
SYMATTR Value SINE()
SYMBOL AutoGenerated/AD848J 416 368 R0
SYMATTR InstName U14A
SYMBOL vnoise 64 368 R90
WINDOW 0 -32 -24 VBottom 2
WINDOW 3 32 -24 VTop 1
WINDOW 123 62 -24 VTop 1
WINDOW 39 47 -24 VTop 1
SYMATTR InstName U1
SYMATTR Value white=1n
SYMATTR Value2 flicker=0
SYMATTR SpiceLine flickerfreq=0
TEXT 784 560 Left 2 !;.AC DEC 10 10K 100Meg
TEXT 784 536 Left 2 !.noise V(Vout) V1 dec 100 1 10Meg
TEXT 896 232 Left 2 !;.TEMP -273.15
